$
$ANSA_VERSION;24.1.1;
$
$
$ file created by  A N S A  Mon Jun  3 13:58:48 2024
$
$ output from :
$
$ /home/mz/repos/buda/examples/truck_assemble/truck/Untitled
$
$ Settings :
$
$ Output format : R13
$
$
$
$
*KEYWORD 25000000
*NODE
       10.00128121648595-.01402298786434 -812.3715146761       0       0
       2620.485127357758119.811039379698341.313002296632       0       0
       3673.089337908345122.420622878049343.850719050146       0       0
       4714.78302817099674.4274728825853345.740122605485       0       0
       5722.486302773146  49.77887318187346.050756144465       0       0
       6 730.1895773753225.1302734810599346.361389683423       0       0
       7735.92247860844375.4761562569305346.759925715797       0       0
       8741.03195561086750.6988837495465346.945430038752       0       0
       9746.15140875794225.9221061375394347.131415627941       0       0
      10757.05195290124176.5243447358988347.779247559875       0       0
      11759.57760844858351.6188943172199347.840103933047       0       0
      12762.11324014066426.7139387939275347.901441572502       0       0
      13778.18142719403977.5725332148674348.798569403953       0       0
      14778.123261286386 52.538904884903348.734777827391       0       0
      15778.07507152328727.5057714504071 348.67146751702       0       0
      16799.31090148683178.6207216938328349.817891248038       0       0
      17796.67889026873653.4594103480515349.629932987934       0       0
      18794.03690290600828.2976041067951349.441493461582       0       0
      19820.44037577962879.6689101728014350.837213092116       0       0
      20815.22454310645154.3794209157248350.524606882229       0       0
$ ... 4229 like lines cut
*ELEMENT_SHELL
       1      78      86      89      88      87
       2      78      90      93      92      91
       3      78      94      95      93      90
       4      78      96      97      95      94
       5      78      98      99      97      96
       6      78     100     101      99      98
       7      78     102     103     101     100
       8      78     102     105     104     103
       9      78      91      92      89      86
      10      78      89     107     106      88
      11      78      92     108     107      89
      12      78      93     109     108      92
      13      78      95     110     109      93
      14      78      97     111     110      95
      15      78      99     112     111      97
      16      78     101     113     112      99
      17      78     103     114     113     101
      18      78     103     104     115     114
      19      78     116     117     105     102
      20      78     116     102     100     118
$ ... 3624 like lines cut
*ELEMENT_SOLID
    1823     135
    1833    1836    1835    1834    1837    1840    1839    1838       0       0
    1824     135
    1836    1842    1841    1835    1840    1844    1843    1839       0       0
    1825     135
    1842    1846    1845    1841    1844    1848    1847    1843       0       0
    1826     135
    1846    1850    1849    1845    1848    1852    1851    1847       0       0
    1827     135
    1850    1854    1853    1849    1852    1856    1855    1851       0       0
    1828     135
    1834    1835    1858    1857    1838    1839    1860    1859       0       0
    1829     135
    1835    1841    1861    1858    1839    1843    1862    1860       0       0
    1830     135
    1841    1845    1863    1861    1843    1847    1864    1862       0       0
    1831     135
    1845    1849    1865    1863    1847    1851    1866    1864       0       0
    1832     135
    1849    1853    1867    1865    1851    1855    1868    1866       0       0
$ ... 460 like lines cut
*PART
FLANGIA_DX
        78        78       255                             0         0          
*SECTION_SHELL_TITLE
FLANGIA_DX
        78         2   0.83333        2.        0.         0         0
       15.       15.       15.       15.        0.                  0.          
*PART
CERNIERA_DX
        91        91         5                             0         0          
*SECTION_SHELL_TITLE
CERNIERA_DX
        91         2   0.83333        2.        0.         0         0
       15.       15.       15.       15.        0.                  0.          
*PART
PERNO_DX
        92        92         6                             0         0          
*SECTION_SHELL_TITLE
PERNO_DX
        92         2   0.83333        2.        0.         0         0
       15.       15.       15.       15.        0.                  0.          
*PART
TRAVE_2_DX
        93        93         2                             0         0          
*SECTION_SHELL_TITLE
TRAVE_2_DX
        93         1   0.83333        8.        0.         0         0
      100.      100.      100.      100.        0.                  0.          
*PART
ELEMENTINO_2_SOSP_POST_DX
        97        97         9                             0         0          
*SECTION_SHELL_TITLE
ELEMENTINO_2_SOSP_POST_DX
        97         2   0.83333        2.        0.         0         0
        5.        5.        5.        5.        0.                  0.          
*PART
ASSALE
       110       110        10                             0         0          
*SECTION_SHELL_TITLE
ASSALE
       110         2   0.83333        2.        0.         0         0
       16.       16.       16.       16.        0.                  0.          
*PART
ASSALE_2_SX
       112       112        11                             0         0          
*SECTION_SHELL_TITLE
ASSALE_2_SX
       112         2   0.83333        2.        0.         0         0
       16.       16.       16.       16.        0.                  0.          
*PART
ASSALE_3_SX
       115       115        11                             0         0          
*SECTION_SHELL_TITLE
ASSALE_3_SX
       115         2   0.83333        2.        0.         0         0
       16.       16.       16.       16.        0.                  0.          
*PART
ATTACCO MOLLA ANTIROLLIO
       116       116        11                             0         0          
*SECTION_SHELL_TITLE
ATTACCO MOLLA ANTIROLLIO
       116         2   0.83333        2.        0.         0         0
       16.       16.       16.       16.        0.                  0.          
*PART
CERCHI
       128       128        50                             0         0          
*SECTION_SHELL_TITLE
CERCHI
       128        16   0.83333        2.        0.         0         0
        4.        4.        4.        4.        0.                  0.          
*PART
CERCHIONE_BASE_DX_1
       129       129        50                             0         0          
*SECTION_SHELL_TITLE
CERCHIONE_BASE_DX_1
       129        16   0.83333        2.        0.         0         0
        4.        4.        4.        4.        0.                  0.          
*PART
LATERALE_GOMMA_DX_1
       130       130         4                             0         0          
*SECTION_SHELL_TITLE
LATERALE_GOMMA_DX_1
       130        16   0.83333        3.        0.         0         0
       10.       10.       10.       10.        0.                  0.          
*PART
BATTISTRADA_DX_1
       131       131         4                             0         0          
*SECTION_SHELL_TITLE
BATTISTRADA_DX_1
       131        16   0.83333        3.        0.         0         0
       20.       20.       20.       20.        0.                  0.          
*PART
CERCHIONE_BASE_DX_2
       132       132        50                             0         0          
*SECTION_SHELL_TITLE
CERCHIONE_BASE_DX_2
       132        16   0.83333        2.        0.         0         0
        4.        4.        4.        4.        0.                  0.          
*PART
LATERALE_GOMMA_DX_2
       133       133         4                             0         0          
*SECTION_SHELL_TITLE
LATERALE_GOMMA_DX_2
       133        16   0.83333        3.        0.         0         0
       10.       10.       10.       10.        0.                  0.          
*PART
BATTISTRADA_DX_2
       134       134         4                             0         0          
*SECTION_SHELL_TITLE
BATTISTRADA_DX_2
       134        16   0.83333        3.        0.         0         0
       20.       20.       20.       20.        0.                  0.          
*PART
FUSO A SNODO_SX
       135       135         8                   1         0         0          
*SECTION_SOLID_TITLE
FUSO A SNODO_SX
       135         3
*PART
FLANGIA_SX_A
       136       136         7                             0         0          
*SECTION_SHELL_TITLE
FLANGIA_SX_A
       136        16   0.83333        6.        0.         0         0
       10.       10.       10.       10.        0.                  0.          
*PART
FLANGIA_SX_B
       137       137         8                             0         0          
*SECTION_SHELL_TITLE
FLANGIA_SX_B
       137        16   0.83333        6.        0.         0         0
       10.       10.       10.       10.        0.                  0.          
*PART
ELEMENTINO_1_POSTERIORE
       200       200         3                             0         0          
*SECTION_SHELL_TITLE
ELEMENTINO_1_POSTERIORE
       200         2   0.83333        2.        0.         0         0
        5.        5.        5.        5.        0.                  0.          
*PART
ELEMENTINO_2_POSTERIORE
       201       201         1                             0         0          
*SECTION_SHELL_TITLE
ELEMENTINO_2_POSTERIORE
       201         2   0.83333        2.        0.         0         0
        5.        5.        5.        5.        0.                  0.          
*DEFINE_COORDINATE_SYSTEM_TITLE
((S
         2834.040554425.754175-408.66738835.038166425.803668-408.71556
834.090108424.755404-408.66731
*MAT_RIGID_TITLE

         1   7.83E-7   207000.      0.28        0.        0.        0.       0.0
       0.0        0.        0.
        0.        0.        0.        0.        0.        0.
*MAT_RIGID_TITLE

         2   7.83E-9   207000.      0.28        0.        0.        0.       0.0
       0.0        0.        0.
        0.        0.        0.        0.        0.        0.
*MAT_RIGID_TITLE

         3   7.83E-7   207000.      0.28        0.        0.        0.       0.0
       0.0        0.        0.
        0.        0.        0.        0.        0.        0.
*MAT_ELASTIC_TITLE

         4   1.19E-9     4000.      0.45        0.        0.          
*MAT_PIECEWISE_LINEAR_PLASTICITY_TITLE

         5   7.83E-9   207000.      0.28      610.        0.        0.        0.
        0.        0.         0         0        0.
        0.     0.009     0.024     0.052     0.077     0.117     0.147     0.297
      610.      645.      670.      720.      780.      840.      870.      795.
*MAT_RIGID_TITLE

         6   7.83E-9   207000.      0.28        0.        0.        0.       0.0
       0.0        0.        0.
        0.        0.        0.        0.        0.        0.
*MAT_PIECEWISE_LINEAR_PLASTICITY_TITLE

         7   7.83E-9   207000.      0.28      610.        0.        0.        0.
        0.        0.         0         0        0.
        0.     0.009     0.024     0.052     0.077     0.117     0.147     0.297
      610.      645.      670.      720.      780.      840.      870.      795.
*MAT_RIGID_TITLE

         8   7.83E-9   207000.      0.28        0.        0.        0.       0.0
       0.0        0.        0.
        0.        0.        0.        0.        0.        0.
*MAT_RIGID_TITLE

         9   7.83E-7   207000.      0.28        0.        0.        0.       0.0
       0.0        0.        0.
        0.        0.        0.        0.        0.        0.
*MAT_PIECEWISE_LINEAR_PLASTICITY_TITLE

        10   7.83E-9   207000.      0.28      610.        0.        0.        0.
        0.        0.         0         0        0.
        0.     0.009     0.024     0.052     0.077     0.117     0.147     0.297
      610.      645.      670.      720.      780.      840.      870.      795.
*MAT_RIGID_TITLE

        11   7.83E-9   207000.      0.28        0.        0.        0.       0.0
       0.0        0.        0.
        0.        0.        0.        0.        0.        0.
*MAT_PIECEWISE_LINEAR_PLASTICITY_TITLE

        50   7.83E-9   207000.      0.28      450.        0.        0.        0.
        0.        0.         0         0        0.
        0.    0.0092    0.0242    0.0522    0.0772     0.117     0.147     0.297
      450.      485.      510.      560.      620.      680.      710.      635.
*MAT_PIECEWISE_LINEAR_PLASTICITY_TITLE

       255   7.83E-9   207000.      0.28      610.        0.        0.        0.
        0.        0.         0         0        0.
        0.     0.009     0.024     0.052     0.077     0.117     0.147     0.297
      610.      645.      670.      720.      780.      840.      870.      795.
*HOURGLASS_TITLE
Formulazione Stiffness
         1         5       0.1         0       1.5      0.06       0.1       0.1
*SET_PART_LIST
         1        0.        0.        0.        0.          
       136       137
*SET_PART_LIST
         2        0.        0.        0.        0.          
       136       137
*SET_PART_LIST
         8        0.        0.        0.        0.          
       136       137
*SET_PART_LIST
        11        0.        0.        0.        0.          
       128       129       130       131       132       133       134
*SET_PART_LIST
        12        0.        0.        0.        0.          
       128       129       130       131       132       133       134
*SET_NODE_LIST
        13        0.        0.        0.        0.          
     12403     12378     12345     12310       771       806       839       864
*SET_NODE_LIST
        14        0.        0.        0.        0.          
      2080      2088      2097      2102     13914     13922     13931     13934
*SET_NODE_LIST
        27        0.        0.        0.        0.          
       726       727       729       731       733       734       737       739
*SET_NODE_LIST
        75        0.        0.        0.        0.          
       726       727       729       731       733       734       737       739
*SET_PART_LIST
       200        0.        0.        0.        0.          
       132       133       134
*SET_PART_LIST
       210        0.        0.        0.        0.          
       129       130       131
*SET_PART_LIST
       231        0.        0.        0.        0.          
        78
*SET_PART_LIST
       233        0.        0.        0.        0.          
       135
*SET_PART_LIST
       234        0.        0.        0.        0.          
       128       129       130       131       132       133       134
*SET_NODE_LIST
       245        0.        0.        0.        0.          
        87        91       100       105       106       108       113       115
       127       138       142       148       151       152       153       155
      8601      8605      8614      8619      8620      8622      8627      8629
      8641      8652      8656      8662      8665      8666      8667      8669
*SET_NODE_LIST
       246        0.        0.        0.        0.          
       191       195       197       201       236       239       243       245
       249       251      8705      8709      8711      8715      8750      8753
      8757      8759      8763      8765
*SET_PART_LIST
       248        0.        0.        0.        0.          
        78
*SET_PART_LIST
       249        0.        0.        0.        0.          
        78
*SET_NODE_TITLE
^sym
       250                                                  
       734       737       739
*SET_PART_LIST
       251        0.        0.        0.        0.          
       110       112       115       116
*SET_PART_LIST
       252        0.        0.        0.        0.          
       110       112       115       116
$ANSA_COLOR;78;SECTION_SHELL;.627451002597809;.631372570991516;0.87058824300766;
$1.;
$ANSA_COLOR;91;SECTION_SHELL;.737254917621613;.901960790157318;.815686285495758;
$1.;
$ANSA_COLOR;92;SECTION_SHELL;.749019622802734;.772549033164978;.737254917621613;
$1.;
$ANSA_COLOR;93;SECTION_SHELL;.756862759590149;.639215707778931;0.65490198135376;
$1.;
$ANSA_COLOR;97;SECTION_SHELL;.792156875133514;.105882354080677;.329411774873734;
$1.;
$ANSA_COLOR;110;SECTION_SHELL;.905882358551025;.376470595598221;.278431385755539
$;1.;
$ANSA_COLOR;112;SECTION_SHELL;.921568632125854;.109803922474384;.117647059261799
$;1.;
$ANSA_COLOR;115;SECTION_SHELL;.949019610881805;.713725507259369;.874509811401367
$;1.;
$ANSA_COLOR;116;SECTION_SHELL;0.95686274766922;.580392181873322;.792156875133514
$;1.;
$ANSA_COLOR;128;SECTION_SHELL;.560784339904785;.984313726425171;.819607853889465
$;1.;
$ANSA_COLOR;129;SECTION_SHELL;.572549045085907;.850980401039124;.737254917621613
$;1.;
$ANSA_COLOR;130;SECTION_SHELL;.580392181873322;.717647075653076;.658823549747467
$;1.;
$ANSA_COLOR;131;SECTION_SHELL;.588235318660736;.584313750267029;.576470613479614
$;1.;
$ANSA_COLOR;132;SECTION_SHELL;.596078455448151;.450980395078659;.494117647409439
$;1.;
$ANSA_COLOR;133;SECTION_SHELL;.603921592235565;.317647069692612;.415686279535294
$;1.;
$ANSA_COLOR;134;SECTION_SHELL;.615686297416687;.184313729405403;.333333343267441
$;1.;
$ANSA_COLOR;135;SECTION_SOLID;.623529434204102;.050980392843485;.254901975393295
$;1.;
$ANSA_COLOR;136;SECTION_SHELL;.631372570991516;.917647063732147;.172549024224281
$;1.;
$ANSA_COLOR;137;SECTION_SHELL;.639215707778931;0.7843137383461;.090196080505848;
$1.;
$ANSA_COLOR;200;SECTION_SHELL;.690196096897125;.407843142747879;.988235294818878
$;1.;
$ANSA_COLOR;201;SECTION_SHELL;0.69803923368454;.274509817361832;.905882358551025
$;1.;
$ANSA_COLOR;1;MAT20 MAT_RIGID;.588235318660736;.141176477074623;.407843142747879
$;1.;
$ANSA_COLOR;2;MAT20 MAT_RIGID;.576470613479614;.274509817361832;.486274510622025
$;1.;
$ANSA_COLOR;3;MAT20 MAT_RIGID;.588235318660736;.141176477074623;.407843142747879
$;1.;
$ANSA_COLOR;4;MAT1 MAT_ELASTIC;.596078455448151;.007843137718737;.32549020648002
$6;1.;
$ANSA_COLOR;5;MAT24 MAT_PIECEWISE_LINEAR_PLASTICITY;0.5686274766922;.40784314274
$7879;0.5686274766922;1.;
$ANSA_COLOR;6;MAT20 MAT_RIGID;.576470613479614;.274509817361832;.486274510622025
$;1.;
$ANSA_COLOR;7;MAT24 MAT_PIECEWISE_LINEAR_PLASTICITY;0.5686274766922;.40784314274
$7879;0.5686274766922;1.;
$ANSA_COLOR;8;MAT20 MAT_RIGID;.576470613479614;.274509817361832;.486274510622025
$;1.;
$ANSA_COLOR;9;MAT20 MAT_RIGID;.588235318660736;.141176477074623;.407843142747879
$;1.;
$ANSA_COLOR;10;MAT24 MAT_PIECEWISE_LINEAR_PLASTICITY;0.5686274766922;.4078431427
$47879;0.5686274766922;1.;
$ANSA_COLOR;11;MAT20 MAT_RIGID;.576470613479614;.274509817361832;.48627451062202
$5;1.;
$ANSA_COLOR;50;MAT24 MAT_PIECEWISE_LINEAR_PLASTICITY;.996078431606293;.890196084
$976196;.600000023841858;1.;
$ANSA_COLOR;255;MAT24 MAT_PIECEWISE_LINEAR_PLASTICITY;0.5686274766922;.407843142
$747879;0.5686274766922;1.;
$ANSA_NAME_COMMENT;3;SET;Untitled;;YES;NO;NO;NO;
$ANSA_USER_ATTRIBUTES;SECTION_SHELL;User/cad_material;TEXT;RW;YES;;;
$ANSA_USER_ATTRIBUTES;SECTION_SHELL;User/cad_thickness;TEXT;RW;YES;;;
$ANSA_USER_ATTRIBUTES;SECTION_SOLID;User/cad_material;TEXT;RW;YES;;;
$ANSA_PART;GROUP;ID;1;NAME;beam.k;PID_OFFSET;0;COLOR;201;236;118;0;IS_COLOR_ACTI
$VE;1;PART_TYPE;Undefined;ATTRIBUTES;2;DM/File Type;ANSA;DM/Status;WIP;CONTAINS;
$ANSAPART;3-6;
$ANSA_PART;GROUP;ID;123;NAME;961.k;PID_OFFSET;0;COLOR;201;236;118;0;IS_COLOR_ACT
$IVE;1;PART_TYPE;Undefined;ATTRIBUTES;2;DM/File Type;ANSA;DM/Status;WIP;CONTAINS
$;ANSAPART;122;
$ANSA_PART;GROUP;ID;127;NAME;932.k;PID_OFFSET;0;COLOR;201;236;118;0;IS_COLOR_ACT
$IVE;1;PART_TYPE;Undefined;ATTRIBUTES;2;DM/File Type;ANSA;DM/Status;WIP;CONTAINS
$;ANSAPART;129;
$ANSA_PART;GROUP;ID;130;NAME;195.k;BELONGS_HERE;YES;PID_OFFSET;0;COLOR;233;196;4
$;0;IS_COLOR_ACTIVE;-1;PART_TYPE;Undefined;ATTRIBUTES;2;DM/File Type;ANSA;DM/Sta
$tus;WIP;CONTAINS;ANSAPART;132;
$ANSA_PART;GROUP;ID;133;NAME;Main.dyn;PID_OFFSET;0;COLOR;201;236;118;0;IS_COLOR_
$ACTIVE;0;PART_TYPE;Undefined;ATTRIBUTES;2;DM/File Type;ANSA;DM/Status;WIP;CONTA
$INS;ANSAPART;53,62,70-73,76-78,110;
$ANSA_PART;GROUP;ID;139;NAME;434.k;PID_OFFSET;0;COLOR;201;236;118;0;IS_COLOR_ACT
$IVE;1;PART_TYPE;Undefined;ATTRIBUTES;2;DM/File Type;ANSA;DM/Status;WIP;CONTAINS
$;ANSAPART;138;
$ANSA_PART;GROUP;ID;143;NAME;bearing.k;PID_OFFSET;0;COLOR;201;236;118;0;IS_COLOR
$_ACTIVE;1;PART_TYPE;Undefined;ATTRIBUTES;2;DM/File Type;ANSA;DM/Status;WIP;CONT
$AINS;ANSAPART;146-148;
$ANSA_PART;PART;ID;3;MID;110;NAME;ASSALE;STUDY_VERSION;0;PID_OFFSET;0;COLOR;206;
$168;77;0;IS_COLOR_ACTIVE;1;PART_TYPE;Undefined;ATTRIBUTES;2;DM/File Type;ANSA;D
$M/Status;WIP;CONTAINS;SECTION_SHELL;110;
$ANSA_PART;PART;ID;4;MID;116;NAME;ATTACCO MOLLA ANTIROLLIO;STUDY_VERSION;0;PID_O
$FFSET;0;COLOR;208;134;56;0;IS_COLOR_ACTIVE;1;PART_TYPE;Undefined;ATTRIBUTES;2;D
$M/File Type;ANSA;DM/Status;WIP;CONTAINS;SECTION_SHELL;116;
$ANSA_PART;PART;ID;5;MID;115;NAME;ASSALE_3_SX;STUDY_VERSION;0;PID_OFFSET;0;COLOR
$;210;100;35;0;IS_COLOR_ACTIVE;1;PART_TYPE;Undefined;ATTRIBUTES;2;DM/File Type;A
$NSA;DM/Status;WIP;CONTAINS;SECTION_SHELL;115;
$ANSA_PART;PART;ID;6;MID;112;NAME;ASSALE_2_SX;STUDY_VERSION;0;PID_OFFSET;0;COLOR
$;212;66;15;0;IS_COLOR_ACTIVE;1;PART_TYPE;Undefined;ATTRIBUTES;2;DM/File Type;AN
$SA;DM/Status;WIP;CONTAINS;SECTION_SHELL;112;
$ANSA_PART;PART;ID;53;MID;78;NAME;FLANGIA_DX;STUDY_VERSION;0;PID_OFFSET;0;COLOR;
$189;2;64;0;IS_COLOR_ACTIVE;1;PART_TYPE;Undefined;ATTRIBUTES;2;DM/File Type;ANSA
$;DM/Status;WIP;CONTAINS;SECTION_SHELL;78;
$ANSA_PART;PART;ID;62;MID;97;NAME;ELEMENTINO_2_SOSP_POST_DX@97;STUDY_VERSION;0;P
$ID_OFFSET;0;COLOR;209;207;133;0;IS_COLOR_ACTIVE;1;PART_TYPE;Undefined;ATTRIBUTE
$S;2;DM/File Type;ANSA;DM/Status;WIP;CONTAINS;SECTION_SHELL;97;
$ANSA_PART;PART;ID;70;MID;130;NAME;LATERALE_GOMMA_DX_1;STUDY_VERSION;0;PID_OFFSE
$T;0;COLOR;227;191;223;0;IS_COLOR_ACTIVE;1;PART_TYPE;Undefined;ATTRIBUTES;2;DM/F
$ile Type;ANSA;DM/Status;WIP;CONTAINS;SECTION_SHELL;130;
$ANSA_PART;PART;ID;71;MID;131;NAME;BATTISTRADA_DX_1;STUDY_VERSION;0;PID_OFFSET;0
$;COLOR;229;157;202;0;IS_COLOR_ACTIVE;1;PART_TYPE;Undefined;ATTRIBUTES;2;DM/File
$ Type;ANSA;DM/Status;WIP;CONTAINS;SECTION_SHELL;131;
$ANSA_PART;PART;ID;72;MID;129;NAME;CERCHIONE_BASE_DX_1;STUDY_VERSION;0;PID_OFFSE
$T;0;COLOR;232;123;182;0;IS_COLOR_ACTIVE;1;PART_TYPE;Undefined;ATTRIBUTES;2;DM/F
$ile Type;ANSA;DM/Status;WIP;CONTAINS;SECTION_SHELL;129;
$ANSA_PART;PART;ID;73;MID;128;NAME;CERCHI;STUDY_VERSION;0;PID_OFFSET;0;COLOR;234
$;89;161;0;IS_COLOR_ACTIVE;1;PART_TYPE;Undefined;ATTRIBUTES;2;DM/File Type;ANSA;
$DM/Status;WIP;CONTAINS;SECTION_SHELL;128;
$ANSA_PART;PART;ID;76;MID;133;NAME;LATERALE_GOMMA_DX_2;STUDY_VERSION;0;PID_OFFSE
$T;0;COLOR;241;242;99;0;IS_COLOR_ACTIVE;1;PART_TYPE;Undefined;ATTRIBUTES;2;DM/Fi
$le Type;ANSA;DM/Status;WIP;CONTAINS;SECTION_SHELL;133;
$ANSA_PART;PART;ID;77;MID;134;NAME;BATTISTRADA_DX_2;STUDY_VERSION;0;PID_OFFSET;0
$;COLOR;243;208;78;0;IS_COLOR_ACTIVE;1;PART_TYPE;Undefined;ATTRIBUTES;2;DM/File 
$Type;ANSA;DM/Status;WIP;CONTAINS;SECTION_SHELL;134;
$ANSA_PART;PART;ID;78;MID;132;NAME;CERCHIONE_BASE_DX_2;STUDY_VERSION;0;PID_OFFSE
$T;0;COLOR;245;174;58;0;IS_COLOR_ACTIVE;1;PART_TYPE;Undefined;ATTRIBUTES;2;DM/Fi
$le Type;ANSA;DM/Status;WIP;CONTAINS;SECTION_SHELL;132;
$ANSA_PART;PART;ID;110;MID;201;NAME;ELEMENTINO_2_POSTERIORE;STUDY_VERSION;0;PID_
$OFFSET;0;COLOR;189;109;162;0;IS_COLOR_ACTIVE;1;PART_TYPE;Undefined;ATTRIBUTES;2
$;DM/File Type;ANSA;DM/Status;WIP;CONTAINS;SECTION_SHELL;201;
$ANSA_PART;PART;ID;122;MID;200;NAME;ELEMENTINO_1_POSTERIORE;STUDY_VERSION;0;PID_
$OFFSET;0;COLOR;206;168;77;0;IS_COLOR_ACTIVE;1;PART_TYPE;Undefined;ATTRIBUTES;2;
$DM/File Type;ANSA;DM/Status;WIP;CONTAINS;SECTION_SHELL;200;
$ANSA_PART;PART;ID;129;MID;93;NAME;TRAVE_2_DX;STUDY_VERSION;0;PID_OFFSET;0;COLOR
$;206;168;77;0;IS_COLOR_ACTIVE;1;PART_TYPE;Undefined;ATTRIBUTES;2;DM/File Type;A
$NSA;DM/Status;WIP;CONTAINS;SECTION_SHELL;93;
$ANSA_PART;PART;ID;132;MID;92;NAME;PERNO_DX;BELONGS_HERE;YES;STUDY_VERSION;0;PID
$_OFFSET;0;COLOR;238;128;217;0;IS_COLOR_ACTIVE;-1;PART_TYPE;Undefined;ATTRIBUTES
$;2;DM/File Type;ANSA;DM/Status;WIP;CONTAINS;SECTION_SHELL;92;
$ANSA_PART;PART;ID;138;MID;91;NAME;CERNIERA_DX;STUDY_VERSION;0;PID_OFFSET;0;COLO
$R;206;168;77;0;IS_COLOR_ACTIVE;1;PART_TYPE;Undefined;ATTRIBUTES;2;DM/File Type;
$ANSA;DM/Status;WIP;CONTAINS;SECTION_SHELL;91;
$ANSA_PART;PART;ID;146;MID;135;NAME;FUSO A SNODO_SX;STUDY_VERSION;0;PID_OFFSET;0
$;COLOR;210;100;35;0;IS_COLOR_ACTIVE;1;PART_TYPE;Undefined;ATTRIBUTES;2;DM/File 
$Type;ANSA;DM/Status;WIP;CONTAINS;SECTION_SOLID;135;
$ANSA_PART;PART;ID;147;MID;136;NAME;FLANGIA_SX_A;STUDY_VERSION;0;PID_OFFSET;0;CO
$LOR;208;134;56;0;IS_COLOR_ACTIVE;1;PART_TYPE;Undefined;ATTRIBUTES;2;DM/File Typ
$e;ANSA;DM/Status;WIP;CONTAINS;SECTION_SHELL;136;
$ANSA_PART;PART;ID;148;MID;137;NAME;FLANGIA_SX_B;STUDY_VERSION;0;PID_OFFSET;0;CO
$LOR;206;168;77;0;IS_COLOR_ACTIVE;1;PART_TYPE;Undefined;ATTRIBUTES;2;DM/File Typ
$e;ANSA;DM/Status;WIP;CONTAINS;SECTION_SHELL;137;
*END
