*KEYWORD 25000000
*NODE
    9868-1874.27539218634051.11439628483-1377.8905854076       0       0
    9869 -1875.4218190234045.05009121991-1388.7607238422       0       0
    9870-1855.40884366274046.02512661351-1391.4153656652       0       0
    9871 -1854.2624168264052.08943167843-1380.5452272306       0       0
    9872-1838.38373086954035.34590291569-1387.2531349421       0       0
    9873-1837.23730403294041.41020798061-1376.3829965075       0       0
    9874-1832.61921106034017.81247248622-1378.0794274176       0       0
    9875-1831.47278422364023.87677755114 -1367.209288983       0       0
    9876-1840.95173626084001.69973871388-1368.2115527648       0       0
    9877-1839.80530942414007.76404377881-1357.3414143302       0       0
    9878-1859.45737869483994.67164091731-1362.3389601971       0       0
    9879-1858.31095185824000.73594598223-1351.4688217625       0       0
    9880-1879.36049426854000.05180687473 -1363.241386776       0       0
    9881-1878.21406743194006.11611193965-1352.3712483414       0       0
    9882-1891.24907245264015.27555137374 -1370.480673218       0       0
    9883 -1890.1026456164021.33985643867-1359.6105347834       0       0
    9884-1889.51282483414033.14760986176-1380.6343705548       0       0
    9885-1888.36639799744039.21191492669-1369.7642321202       0       0
    9886-1877.25610196164035.34720311603-1406.1529453376       0       0
    9887-1857.24312660134036.32223850963-1408.8075871606       0       0
$ ... 70 like lines cut
*ELEMENT_SHELL
    8534      92    9868    9869    9870    9871
    8535      92    9871    9870    9872    9873
    8536      92    9873    9872    9874    9875
    8537      92    9875    9874    9876    9877
    8538      92    9877    9876    9878    9879
    8539      92    9879    9878    9880    9881
    8540      92    9881    9880    9882    9883
    8541      92    9883    9882    9884    9885
    8542      92    9885    9884    9869    9868
    8543      92    9869    9886    9887    9870
    8544      92    9870    9887    9888    9872
    8545      92    9872    9888    9889    9874
    8546      92    9874    9889    9890    9876
    8547      92    9876    9890    9891    9878
    8548      92    9878    9891    9892    9880
    8549      92    9880    9892    9893    9882
    8550      92    9882    9893    9894    9884
    8551      92    9884    9894    9886    9869
    8552      92    9886    9895    9896    9887
    8553      92    9887    9896    9897    9888
$ ... 61 like lines cut
*PART
PERNO_DX
        92        92         2                             0         0          
*SECTION_SHELL_TITLE
PERNO_DX
        92         2   0.83333        2.        0.         0         0
       15.       15.       15.       15.        0.                  0.          
*DEFINE_COORDINATE_SYSTEM_TITLE
S
         2  -1876.413946.89426-1509.2624-1876.31113946.02084-1508.7856
-1877.40093946.85203-1509.1344
*MAT_RIGID_TITLE

         2   7.83E-9   207000.      0.28        0.        0.        0.       0.0
       0.0        0.        0.
        0.        0.        0.        0.        0.        0.
*END
