$
$ANSA_VERSION;24.1.1;
$
$
$ file created by  A N S A  Fri May 31 11:09:44 2024
$
$ output from :
$
$ /home/mz/repos/buda/dirty/susp/after_cs/improve/3lyrs/434.k
$
$ Settings :
$
$ Output format : R13
$
$ Output : All
$
$
$
$
*KEYWORD 25000000
*NODE
    17733586.60874040557-949.46102846844  -3289.99362861       0       0
    17833612.74818285159-958.23886430048 -3334.939507695       0       0
    17903618.20824908362 -1012.759575681-3367.2343340191       0       0
    17913614.40713950617-1037.8267209201-3372.1516702431       0       0
    17923610.60602992872-1062.8938661593-3377.0690064671       0       0
    17953628.71260685777-1016.2870238373-3385.2962186732       0       0
    17963623.62261902583-1040.9213533517 -3387.997372731       0       0
    17973618.53758841794 -1065.557347542-3390.7070505664       0       0
    18003639.21200740787-1019.8128073177-3403.3495795497       0       0
    20983632.83809854548-1044.0159857833-3403.8430752189       0       0
    20993626.46914690715-1068.2208289248-3404.3450946658       0       0
    26863649.71140795797-1023.3385907981-3421.4029404262       0       0
    26873642.05357806514-1047.1106182149-3419.6887777069       0       0
    26883634.40070539637-1070.8843103075-3417.9831387651       0       0
    26913660.21080850806-1026.8643742785-3439.4563013027       0       0
    26923651.27401480885-1050.2069153223-3435.5430039724       0       0
    26933642.33226388558-1073.5477916903-3431.6211828645       0       0
    26963670.71020905816-1030.3901577589-3457.5096621792       0       0
    2697 3660.4894943285-1053.3015477539-3451.3887064603       0       0
    26983650.26382237479 -1076.211273073-3445.2592269638       0       0
$ ... 256 like lines cut
*ELEMENT_SHELL
    8211      91    1773    9592    9593    9594
    8212      91    9594    9593    9595    9596
    8213      91    9596    9595    9597    9598
    8214      91    9598    9597    9599    9600
    8215      91    9592    1783    9602    9593
    8216      91    9593    9602    9603    9595
    8217      91    9595    9603    9604    9597
    8218      91    9597    9604    9605    9599
    8219      91    1783    9606    9607    9602
    8220      91    9602    9607    1790    9603
    8221      91    9603    1790    1791    9604
    8222      91    9604    1791    1792    9605
    8223      91    9606    9611    9612    9607
    8224      91    9607    9612    1795    1790
    8225      91    1790    1795    1796    1791
    8226      91    1791    1796    1797    1792
    8227      91    9611    9616    9617    9612
    8228      91    9612    9617    1800    1795
    8229      91    1795    1800    2098    1796
    8230      91    1796    2098    2099    1797
$ ... 222 like lines cut
*PART
CERNIERA_DX
        91        91         1                             0         0          
*SECTION_SHELL_TITLE
CERNIERA_DX
        91         2   0.83333        2.        0.         0         0
       15.       15.       15.       15.        0.                  0.          
*DEFINE_COORDINATE_SYSTEM_TITLE
(((S
         13539.62922-1106.6853-3456.7216 3540.4263-1106.9042-3456.1588
3540.16394-1106.8625-3457.5478
*DEFINE_COORDINATE_SYSTEM_TITLE
((((M
         23584.51492-953.15928-3460.60053583.69299-952.93217-3461.1228
3584.01919-952.99281-3459.7481
*DEFINE_COORDINATE_SYSTEM_TITLE
M
         3 3623.4646-1079.8568-3404.67643623.71451-1078.8889-3404.6489
3622.95275-1079.7489-3403.8241
*MAT_PIECEWISE_LINEAR_PLASTICITY_TITLE

         1   7.83E-9   207000.      0.28      610.        0.        0.        0.
        0.        0.         0         0        0.
        0.     0.009     0.024     0.052     0.077     0.117     0.147     0.297
      610.      645.      670.      720.      780.      840.      870.      795.
$ANSA_COLOR;91;SECTION_SHELL;.737254917621613;.901960790157318;.815686285495758;
$1.;
$ANSA_COLOR;1;MAT24 MAT_PIECEWISE_LINEAR_PLASTICITY;0.5686274766922;.40784314274
$7879;0.5686274766922;1.;
$ANSA_USER_ATTRIBUTES;SECTION_SHELL;User/cad_material;TEXT;RW;YES;;;
$ANSA_USER_ATTRIBUTES;SECTION_SHELL;User/cad_thickness;TEXT;RW;YES;;;
$ANSA_PART;GROUP;ID;1;NAME;434.k;BELONGS_HERE;YES;PID_OFFSET;0;COLOR;201;236;118
$;0;IS_COLOR_ACTIVE;1;PART_TYPE;Undefined;ATTRIBUTES;2;DM/File Type;ANSA;DM/Stat
$us;WIP;CONTAINS;ANSAPART;3;
$ANSA_PART;PART;ID;3;MID;91;NAME;CERNIERA_DX;BELONGS_HERE;YES;STUDY_VERSION;0;PI
$D_OFFSET;0;COLOR;206;168;77;0;IS_COLOR_ACTIVE;1;PART_TYPE;Undefined;ATTRIBUTES;
$2;DM/File Type;ANSA;DM/Status;WIP;CONTAINS;SECTION_SHELL;91;
*END
