$
$ANSA_VERSION;24.1.1;
$
$
$ file created by  A N S A  Fri May 31 11:12:49 2024
$
$ output from :
$
$ /home/mz/repos/buda/dirty/susp/after_cs/improve/3lyrs/932.k
$
$ Settings :
$
$ Output format : R13
$
$ Output : All
$
$
$
$
*KEYWORD 25000000
*NODE
    99595211.17205571074-806.90337173217764.716225836193       0       0
    99605340.03692373201-826.55421737369779.240001358952       0       0
    99615347.55002267949-777.12239844563779.460504576699       0       0
    99625218.68515465823-757.47155280411764.936729053941       0       0
    99635355.06312162697-727.69057951757779.681007794446       0       0
    99645226.19825360571-708.03973387605765.157232271687       0       0
    99655790.02945537245-894.96742913749  783.5532279914       0       0
    99665821.74384573755-899.81084554227788.748298857141       0       0
    99675829.25694468503-850.37902661421788.968802074889       0       0
    99685797.54255431994-845.53561020943783.773731209147       0       0
    99695870.53521553001-907.26225539578796.740715573666       0       0
    99705878.04831447749-857.83043646773796.961218791414       0       0
    99715919.32658532247 -914.7136652493804.733132290191       0       0
    99725926.83968426995-865.28184632124804.953635507938       0       0
    99735973.23129066917-922.94598285546813.563154278607       0       0
    99745980.74438961666 -873.5141639274813.783657496355       0       0
    99756022.02266046163-930.39739270897821.555570995133       0       0
    99766029.53575940912-880.96557378091 821.77607421288       0       0
    99776070.81403025409-937.84880256248829.547987711657       0       0
    99786078.32712920157-888.41698363443829.768490929404       0       0
$ ... 46 like lines cut
*ELEMENT_SHELL
    8630      93    9959    9960    9961    9962
    8631      93    9962    9961    9963    9964
    8664      93    9965    9966    9967    9968
    8665      93    9966    9969    9970    9967
    8666      93    9969    9971    9972    9970
    8667      93    9971    9973    9974    9972
    8668      93    9973    9975    9976    9974
    8669      93    9975    9977    9978    9976
    8670      93    9968    9967    9979    9980
    8671      93    9967    9970    9981    9979
    8672      93    9970    9972    9982    9981
    8673      93    9972    9974    9983    9982
    8674      93    9974    9976    9984    9983
    8675      93    9976    9978    9985    9984
    8676      93    9986    9987    9988    9989
    8677      93    9989    9988    9990    9991
    8678      93    9987    9992    9993    9988
    8679      93    9988    9993    9994    9990
    8680      93    9992    9963    9961    9993
    8681      93    9993    9961    9960    9994
$ ... 22 like lines cut
*PART
TRAVE_2_DX
        93        93         2                             0         0          
*SECTION_SHELL_TITLE
TRAVE_2_DX
        93         1   0.83333        8.        0.         0         0
      100.      100.      100.      100.        0.                  0.          
*DEFINE_COORDINATE_SYSTEM_TITLE
(M
         16289.88642-837.75532862.7664426288.92491-837.98557862.616471
6290.11075-838.72826862.821937
*DEFINE_COORDINATE_SYSTEM_TITLE
(((S
         25980.74439-873.51416813.7836575979.76856-873.36514813.623809
5980.59413 -874.5028813.779247
*DEFINE_COORDINATE_SYSTEM_TITLE
(((M
         35218.68515-757.47155764.9367295218.83542-756.48292764.941139
5217.70266-757.32173764.825997
*MAT_RIGID_TITLE

         2   7.83E-9   207000.      0.28        0.        0.        0.       0.0
       0.0        0.        0.
        0.        0.        0.        0.        0.        0.
$ANSA_COLOR;93;SECTION_SHELL;.756862759590149;.639215707778931;0.65490198135376;
$1.;
$ANSA_COLOR;2;MAT20 MAT_RIGID;.576470613479614;.274509817361832;.486274510622025
$;1.;
$ANSA_USER_ATTRIBUTES;SECTION_SHELL;User/cad_material;TEXT;RW;YES;;;
$ANSA_USER_ATTRIBUTES;SECTION_SHELL;User/cad_thickness;TEXT;RW;YES;;;
$ANSA_PART;GROUP;ID;1;NAME;932.k;BELONGS_HERE;YES;PID_OFFSET;0;COLOR;201;236;118
$;0;IS_COLOR_ACTIVE;1;PART_TYPE;Undefined;ATTRIBUTES;2;DM/File Type;ANSA;DM/Stat
$us;WIP;CONTAINS;ANSAPART;3;
$ANSA_PART;PART;ID;3;MID;93;NAME;TRAVE_2_DX;BELONGS_HERE;YES;STUDY_VERSION;0;PID
$_OFFSET;0;COLOR;206;168;77;0;IS_COLOR_ACTIVE;1;PART_TYPE;Undefined;ATTRIBUTES;2
$;DM/File Type;ANSA;DM/Status;WIP;CONTAINS;SECTION_SHELL;93;
*END
