$
$ANSA_VERSION;24.1.1;
$
$
$ file created by  A N S A  Sat Jun  1 16:30:06 2024
$
$ output from :
$
$ /home/mz/repos/buda/dirty/susp/after_cs/improve/3lyrs/beam.k
$
$ Settings :
$
$ Output format : R13
$
$ Output : All
$
$
$
$
*KEYWORD 25000000
*TITLE
HGV-10_V1.0                                                                     
*CONTROL_ACCURACY
         0         1         3          
*CONTROL_BULK_VISCOSITY
       1.5      0.06         1          
*CONTROL_CONTACT
       0.1        0.         2         0         1         1         1          
         0         0        10         0        4.         0         0         0
        0.        0.        0.        0.        0.        0.        0.          
*CONTROL_ENERGY
         2         2         2         1
*CONTROL_HOURGLASS
         1       0.1
*CONTROL_OUTPUT
         0         0         0         0        0.         0       100      5000
         0                                                                      
*CONTROL_SHELL
       20.                  -1         0         2         2         1         0
*CONTROL_TERMINATION
       1.2         0        0.        0.        0.          
*CONTROL_TIMESTEP
        0.       0.9         0        0.        0.                   0         0
*DATABASE_RWFORC
      0.01                              
*DATABASE_NODOUT
     1.E-5                                                  
*DATABASE_GLSTAT
      0.01                              
*DATABASE_DEFORC
    0.0001                              
*DATABASE_MATSUM
      0.01                              
*DATABASE_RCFORC
     1.E-5                              
*DATABASE_ABSTAT
     1.E-5                              
*DATABASE_SLEOUT
      0.01                              
*DATABASE_JNTFORC
      0.01                              
*DATABASE_BINARY_D3PLOT
     0.006                   0         0          
         0                                                  
*DATABASE_BINARY_D3DUMP
  1000000.
*NODE
   1100048.0406489490069-19.908472429514-645.74988838958       0       0
   1100148.041569951973619.8904770919718-645.75043465455       0       0
   1100248.041634714377719.8911101844012-599.62543465892       0       0
   1100348.0407137114133-19.907839337089-599.62488839394       0       0
   1100448.041699476853819.8917432767685-553.50043466333       0       0
   1100548.0407784738875-19.907206244717-553.49988839836       0       0
   1100619.899287457652948.0331478971942-645.75078141548       0       0
   1100719.899352220135948.0337809895687-599.62578141988       0       0
   1100819.899416982539448.0344140819984-553.50078142426       0       0
   11009-19.90026123436148.0336676539693-645.75072554149       0       0
   11010-19.90019647188748.0343007463406-599.62572554591       0       0
   11011-19.90013170947448.0349338387735-553.50072555027       0       0
   11012-48.04240941380319.8916016348452-645.75029976193       0       0
   11013-48.04234465132819.8922347272166-599.62529976635       0       0
   11014-48.04227988892219.8928678196419-553.50029977071       0       0
   11015-48.042406541966-19.907730581421  -645.749753493       0       0
   11016 -48.04234177949-19.907097489053 -599.6247534974       0       0
   11017-48.042277017077 -19.90646439662-553.49975350177       0       0
   11018-19.900971383516-48.049833916883-645.74940673866       0       0
   11019 -19.90090662104-48.049200824515-599.62440674307       0       0
$ ... 116 like lines cut
*ELEMENT_SHELL
   10006     110   11000   11001   11002   11003
   10007     110   11004   11005   11003   11002
   10008     110   11001   11006   11007   11002
   10009     110   11008   11004   11002   11007
   10010     110   11006   11009   11010   11007
   10011     110   11011   11008   11007   11010
   10012     110   11009   11012   11013   11010
   10013     110   11014   11011   11010   11013
   10014     110   11012   11015   11016   11013
   10015     110   11017   11014   11013   11016
   10016     110   11015   11018   11019   11016
   10017     110   11020   11017   11016   11019
   10018     110   11018   11021   11022   11019
   10019     110   11023   11020   11019   11022
   10020     110   11021   11000   11003   11022
   10021     110   11005   11023   11022   11003
   10022     110   11005   11004   11024   11025
   10023     110   11026   11027   11025   11024
   10024     110   11004   11008   11028   11024
   10025     110   11029   11026   11024   11028
$ ... 108 like lines cut
*PART
ASSALE
       110       110         1                             0         0          
*SECTION_SHELL_TITLE
ASSALE
       110         2   0.83333        2.        0.         0         0
       16.       16.       16.       16.        0.                  0.          
*PART
ASSALE_2_SX
       112       112         2                             0         0          
*SECTION_SHELL_TITLE
ASSALE_2_SX
       112         2   0.83333        2.        0.         0         0
       16.       16.       16.       16.        0.                  0.          
*PART
ASSALE_3_SX
       115       115         2                             0         0          
*SECTION_SHELL_TITLE
ASSALE_3_SX
       115         2   0.83333        2.        0.         0         0
       16.       16.       16.       16.        0.                  0.          
*PART
ATTACCO MOLLA ANTIROLLIO
       116       116         2                             0         0          
*SECTION_SHELL_TITLE
ATTACCO MOLLA ANTIROLLIO
       116         2   0.83333        2.        0.         0         0
       16.       16.       16.       16.        0.                  0.          
*DEFINE_COORDINATE_SYSTEM_TITLE
((M
         1.000161699-.00918326-738.00011-.38259229-.93303357-738.00008
-.92368861.373570721-738.00009
*DEFINE_COORDINATE_SYSTEM_TITLE
((M clap
         3        0.        0.        0.        1.5.5511E-173.6666E-17
-5.551E-17        1.1.2247E-16
*DEFINE_COORDINATE_SYSTEM_TITLE
(((M
         5-.00085777-108.04713-438.186930.99914223-108.04713-438.18693
-.00085777-108.04713-439.18693
*MAT_PIECEWISE_LINEAR_PLASTICITY_TITLE

         1   7.83E-9   207000.      0.28      610.        0.        0.        0.
        0.        0.         0         0        0.
        0.     0.009     0.024     0.052     0.077     0.117     0.147     0.297
      610.      645.      670.      720.      780.      840.      870.      795.
*MAT_RIGID_TITLE

         2   7.83E-9   207000.      0.28        0.        0.        0.       0.0
       0.0        0.        0.
        0.        0.        0.        0.        0.        0.
*SET_NODE_TITLE
^sym
         2                                                  
     11271     11272     11273
*SET_PART_LIST
         8        0.        0.        0.        0.          
       110       112       115       116
*SET_NODE_LIST
        27        0.        0.        0.        0.          
     11266     11267     11268     11269     11270     11271     11272     11273
*SET_NODE_LIST
        75        0.        0.        0.        0.          
     11266     11267     11268     11269     11270     11271     11272     11273
*SET_PART_LIST
       233        0.        0.        0.        0.          
       110       112       115       116
$ANSA_COLOR;110;SECTION_SHELL;.905882358551025;.376470595598221;.278431385755539
$;1.;
$ANSA_COLOR;112;SECTION_SHELL;.921568632125854;.109803922474384;.117647059261799
$;1.;
$ANSA_COLOR;115;SECTION_SHELL;.949019610881805;.713725507259369;.874509811401367
$;1.;
$ANSA_COLOR;116;SECTION_SHELL;0.95686274766922;.580392181873322;.792156875133514
$;1.;
$ANSA_COLOR;1;MAT24 MAT_PIECEWISE_LINEAR_PLASTICITY;0.5686274766922;.40784314274
$7879;0.5686274766922;1.;
$ANSA_COLOR;2;MAT20 MAT_RIGID;.576470613479614;.274509817361832;.486274510622025
$;1.;
$ANSA_NAME_COMMENT;3;SET;Untitled;;YES;NO;NO;NO;
$ANSA_USER_ATTRIBUTES;SECTION_SHELL;User/cad_material;TEXT;RW;YES;;;
$ANSA_USER_ATTRIBUTES;SECTION_SHELL;User/cad_thickness;TEXT;RW;YES;;;
$ANSA_PART;GROUP;ID;1;NAME;beam.k;BELONGS_HERE;YES;PID_OFFSET;0;COLOR;201;236;11
$8;0;IS_COLOR_ACTIVE;1;PART_TYPE;Undefined;ATTRIBUTES;2;DM/File Type;ANSA;DM/Sta
$tus;WIP;CONTAINS;ANSAPART;3-6;
$ANSA_PART;PART;ID;3;MID;110;NAME;ASSALE;BELONGS_HERE;YES;STUDY_VERSION;0;PID_OF
$FSET;0;COLOR;206;168;77;0;IS_COLOR_ACTIVE;1;PART_TYPE;Undefined;ATTRIBUTES;2;DM
$/File Type;ANSA;DM/Status;WIP;CONTAINS;SECTION_SHELL;110;
$ANSA_PART;PART;ID;4;MID;116;NAME;ATTACCO MOLLA ANTIROLLIO;BELONGS_HERE;YES;STUD
$Y_VERSION;0;PID_OFFSET;0;COLOR;208;134;56;0;IS_COLOR_ACTIVE;1;PART_TYPE;Undefin
$ed;ATTRIBUTES;2;DM/File Type;ANSA;DM/Status;WIP;CONTAINS;SECTION_SHELL;116;
$ANSA_PART;PART;ID;5;MID;115;NAME;ASSALE_3_SX;BELONGS_HERE;YES;STUDY_VERSION;0;P
$ID_OFFSET;0;COLOR;210;100;35;0;IS_COLOR_ACTIVE;1;PART_TYPE;Undefined;ATTRIBUTES
$;2;DM/File Type;ANSA;DM/Status;WIP;CONTAINS;SECTION_SHELL;115;
$ANSA_PART;PART;ID;6;MID;112;NAME;ASSALE_2_SX;BELONGS_HERE;YES;STUDY_VERSION;0;P
$ID_OFFSET;0;COLOR;212;66;15;0;IS_COLOR_ACTIVE;1;PART_TYPE;Undefined;ATTRIBUTES;
$2;DM/File Type;ANSA;DM/Status;WIP;CONTAINS;SECTION_SHELL;112;
$ANSA_PART;PART;ID;12;NAME;Untitled;BELONGS_HERE;YES;STUDY_VERSION;0;PID_OFFSET;
$0;COLOR;210;145;139;0;IS_COLOR_ACTIVE;1;PART_TYPE;Undefined;ATTRIBUTES;2;DM/Fil
$e Type;ANSA;DM/Status;WIP;
*END
