$
$ANSA_VERSION;24.1.1;
$
$
$ file created by  A N S A  Sat Jun  1 13:52:49 2024
$
$ output from :
$
$ /home/mz/repos/buda/dirty/susp/after_cs/improve/3lyrs/bearing.k
$
$ Settings :
$
$ Output format : R13
$
$ Output : All
$
$
$
$
*KEYWORD 25000000
*TITLE
HGV-10_V1.0                                                                     
*CONTROL_ACCURACY
         0         1         3          
*CONTROL_BULK_VISCOSITY
       1.5      0.06         1          
*CONTROL_CONTACT
       0.1        0.         2         0         1         1         1          
         0         0        10         0        4.         0         0         0
        0.        0.        0.        0.        0.        0.        0.          
*CONTROL_ENERGY
         2         2         2         1
*CONTROL_HOURGLASS
         1       0.1
*CONTROL_OUTPUT
         0         0         0         0        0.         0       100      5000
         0                                                                      
*CONTROL_SHELL
       20.                  -1         0         2         2         1         0
*CONTROL_TERMINATION
       1.2         0        0.        0.        0.          
*CONTROL_TIMESTEP
        0.       0.9         0        0.        0.                   0         0
*DATABASE_RWFORC
      0.01                              
*DATABASE_NODOUT
     1.E-5                                                  
*DATABASE_GLSTAT
      0.01                              
*DATABASE_DEFORC
    0.0001                              
*DATABASE_MATSUM
      0.01                              
*DATABASE_RCFORC
     1.E-5                              
*DATABASE_ABSTAT
     1.E-5                              
*DATABASE_SLEOUT
      0.01                              
*DATABASE_JNTFORC
      0.01                              
*DATABASE_BINARY_D3PLOT
     0.006                   0         0          
         0                                                  
*DATABASE_BINARY_D3DUMP
  1000000.
*NODE
       15968.943165903021857.40415795975552.832659986418       0       0
   13670  5976.7591495981840.99252848424631.739290436195       0       0
   13671  5973.590270303 1847.5917992639644.831686290298       0       0
   136725995.276571998741855.99323229916641.636745734407       0       0
   136735994.10866435685 1847.7131490964 629.18376344158       0       0
   136745963.097949656521869.53198742005614.047317657277       0       0
   136755959.929468337531876.13042693116627.140114270282       0       0
   136765981.615770033261884.53185996642 623.94517371439       0       0
   136775980.447862391371876.25177676366611.492191421563       0       0
   136786016.390549882111860.33782581123632.341574000358       0       0
   136796010.999272540361851.18955997067 621.74720773452       0       0
   136806002.729726790911888.87649747334614.650089262399       0       0
   136815997.338784048021879.72753234877604.056385601633       0       0
   136826034.863987493861860.20145827937617.856972220852       0       0
   136836025.778769469871851.08075877125610.159421990482       0       0
   13684 6021.20358350441888.73925467809600.165800959737       0       0
   136856012.118344354691879.61859916482592.468338011423       0       0
   136866048.877990031711855.60181708433599.618016357206       0       0
   136876036.989107777261847.40146041411595.567953835328       0       0
   136886035.217166940511884.14048874644581.926531619246       0       0
$ ... 281 like lines cut
*ELEMENT_SHELL
   12723     137   13952   13953   13912   13911
   12724     136   13911   13912   13913   13914
   12725     137   13953   13954   13915   13912
   12726     136   13912   13915   13916   13913
   12727     137   13954   13955   13917   13915
   12728     136   13915   13917   13918   13916
   12729     137   13955   13956   13919   13917
   12730     136   13917   13919   13920   13918
   12731     137   13956   13957   13921   13919
   12732     136   13919   13921   13922   13920
   12733     137   13952   13911   13924   13958
   12734     136   13911   13914   13923   13924
   12735     137   13958   13924   13926   13959
   12736     136   13924   13923   13925   13926
   12737     137   13959   13926   13928   13960
   12738     136   13926   13925   13927   13928
   12739     137   13960   13928   13930   13961
   12740     136   13928   13927   13929   13930
   12741     137   13961   13930   13932   13962
   12742     136   13930   13929   13931   13932
$ ... 20 like lines cut
*ELEMENT_SOLID
   13444     135
   13670   13671   13672   13673   13674   13675   13676   13677       0       0
   13445     135
   13673   13672   13678   13679   13677   13676   13680   13681       0       0
   13446     135
   13679   13678   13682   13683   13681   13680   13684   13685       0       0
   13447     135
   13683   13682   13686   13687   13685   13684   13688   13689       0       0
   13448     135
   13687   13686   13690   13691   13689   13688   13692   13693       0       0
   13449     135
   13671   13694   13695   13672   13675   13696   13697   13676       0       0
   13450     135
   13672   13695   13698   13678   13676   13697   13699   13680       0       0
   13451     135
   13678   13698   13700   13682   13680   13699   13701   13684       0       0
   13452     135
   13682   13700   13702   13686   13684   13701   13703   13688       0       0
   13453     135
   13686   13702   13704   13690   13688   13703   13705   13692       0       0
$ ... 220 like lines cut
*PART
FUSO A SNODO_SX
       135       135         2                   1         0         0          
*SECTION_SOLID_TITLE
FUSO A SNODO_SX
       135         3
*PART
FLANGIA_SX_A
       136       136         1                             0         0          
*SECTION_SHELL_TITLE
FLANGIA_SX_A
       136        16   0.83333        6.        0.         0         0
       10.       10.       10.       10.        0.                  0.          
*PART
FLANGIA_SX_B
       137       137         2                             0         0          
*SECTION_SHELL_TITLE
FLANGIA_SX_B
       137        16   0.83333        6.        0.         0         0
       10.       10.       10.       10.        0.                  0.          
*DEFINE_COORDINATE_SYSTEM_TITLE
((((M rear-tire
         15989.434411814.59598579.3698545988.511421814.32113579.639191
5989.356491814.04407578.539602
*DEFINE_COORDINATE_SYSTEM_TITLE
((S
         25940.918461915.95414516.5336065941.772181916.04484516.020839
5941.277851916.56409517.239861
*MAT_PIECEWISE_LINEAR_PLASTICITY_TITLE

         1   7.83E-9   207000.      0.28      610.        0.        0.        0.
        0.        0.         0         0        0.
        0.     0.009     0.024     0.052     0.077     0.117     0.147     0.297
      610.      645.      670.      720.      780.      840.      870.      795.
*MAT_RIGID_TITLE

         2   7.83E-9   207000.      0.28        0.        0.        0.       0.0
       0.0        0.        0.
        0.        0.        0.        0.        0.        0.
*HOURGLASS_TITLE
Formulazione Stiffness
         1         5       0.1         0       1.5      0.06       0.1       0.1
*SET_PART_LIST
         8        0.        0.        0.        0.          
       136       137
*SET_NODE_LIST
        14        0.        0.        0.        0.          
     13914     13922     13931     13934
*SET_PART_LIST
       231        0.        0.        0.        0.          
       136       137
*SET_PART_LIST
       233        0.        0.        0.        0.          
       135
*SET_PART_LIST
       234        0.        0.        0.        0.          
       136       137
$ANSA_COLOR;135;SECTION_SOLID;.623529434204102;.050980392843485;.254901975393295
$;1.;
$ANSA_COLOR;136;SECTION_SHELL;.631372570991516;.917647063732147;.172549024224281
$;1.;
$ANSA_COLOR;137;SECTION_SHELL;.639215707778931;0.7843137383461;.090196080505848;
$1.;
$ANSA_COLOR;1;MAT24 MAT_PIECEWISE_LINEAR_PLASTICITY;0.5686274766922;.40784314274
$7879;0.5686274766922;1.;
$ANSA_COLOR;2;MAT20 MAT_RIGID;.576470613479614;.274509817361832;.486274510622025
$;1.;
$ANSA_NAME_COMMENT;3;SET;Untitled;;YES;NO;NO;NO;
$ANSA_USER_ATTRIBUTES;SECTION_SHELL;User/cad_material;TEXT;RW;YES;;;
$ANSA_USER_ATTRIBUTES;SECTION_SHELL;User/cad_thickness;TEXT;RW;YES;;;
$ANSA_USER_ATTRIBUTES;SECTION_SOLID;User/cad_material;TEXT;RW;YES;;;
$ANSA_PART;GROUP;ID;1;NAME;bearing.k;BELONGS_HERE;YES;PID_OFFSET;0;COLOR;201;236
$;118;0;IS_COLOR_ACTIVE;1;PART_TYPE;Undefined;ATTRIBUTES;2;DM/File Type;ANSA;DM/
$Status;WIP;CONTAINS;ANSAPART;3-5;
$ANSA_PART;PART;ID;3;MID;137;NAME;FLANGIA_SX_B;BELONGS_HERE;YES;STUDY_VERSION;0;
$PID_OFFSET;0;COLOR;206;168;77;0;IS_COLOR_ACTIVE;1;PART_TYPE;Undefined;ATTRIBUTE
$S;2;DM/File Type;ANSA;DM/Status;WIP;CONTAINS;SECTION_SHELL;137;
$ANSA_PART;PART;ID;4;MID;136;NAME;FLANGIA_SX_A;BELONGS_HERE;YES;STUDY_VERSION;0;
$PID_OFFSET;0;COLOR;208;134;56;0;IS_COLOR_ACTIVE;1;PART_TYPE;Undefined;ATTRIBUTE
$S;2;DM/File Type;ANSA;DM/Status;WIP;CONTAINS;SECTION_SHELL;136;
$ANSA_PART;PART;ID;5;MID;135;NAME;FUSO A SNODO_SX;BELONGS_HERE;YES;STUDY_VERSION
$;0;PID_OFFSET;0;COLOR;210;100;35;0;IS_COLOR_ACTIVE;1;PART_TYPE;Undefined;ATTRIB
$UTES;2;DM/File Type;ANSA;DM/Status;WIP;CONTAINS;SECTION_SOLID;135;
*END
