$
$ANSA_VERSION;24.1.1;
$
$
$ file created by  A N S A  Sat Jun  1 17:20:13 2024
$
$ output from :
$
$ /home/mz/repos/buda/dirty/susp/after_cs/improve/3lyrs/ear.k
$
$ Settings :
$
$ Output format : R13
$
$ Output : All
$
$
$
$
*KEYWORD
*NODE
    8600 -684.71195798314880.011181803914643.10331293348       0       0
    8601-686.743762874644870.621187586944625.56193962669       0       0
    8602-673.585335515374853.939907707864632.96738971608       0       0
    8603-671.553530623834863.329901924834650.50876302287       0       0
    8604-677.455366812974913.547546149814705.75232769865       0       0
    8605-681.084170349264896.777016478314674.42343497274       0       0
    8606-667.925742989994880.095736599224681.82888506213       0       0
    8607 -664.29693945374896.866266270734713.15777778804       0       0
    8608-673.827579179134930.313380824214737.07244973792       0       0
    8609-660.669151819864913.632100945134744.47789982731       0       0
    8610-670.198775642844947.083910495724768.40134246383       0       0
    8611-657.040348283574930.402630616644775.80679255322       0       0
    8612  -666.5709880094963.84974517012 4799.7214645031       0       0
    8613-653.412560649734947.168465291034807.12691459249       0       0
    8614-662.942184472714980.620274841634831.05035722903       0       0
    8615-649.783757113444963.938994962554838.45580731842       0       0
    8616-659.314396838874997.386109516034862.37047926829       0       0
    8617 -646.15596947964980.704829636954869.77592935768       0       0
    8618-644.124164588064990.094823853924887.31730266447       0       0
    8619-657.28259194733  5006.7761037334879.91185257508       0       0
$ ... 170 like lines cut
*ELEMENT_SHELL
    7640      78    8600    8601    8602    8603
    7641      78    8604    8605    8606    8607
    7642      78    8608    8604    8607    8609
    7643      78    8610    8608    8609    8611
    7644      78    8612    8610    8611    8613
    7645      78    8614    8612    8613    8615
    7646      78    8616    8614    8615    8617
    7647      78    8616    8617    8618    8619
    7648      78    8605    8600    8603    8606
    7649      78    8603    8602    8620    8621
    7650      78    8606    8603    8621    8622
    7651      78    8607    8606    8622    8623
    7652      78    8609    8607    8623    8624
    7653      78    8611    8609    8624    8625
    7654      78    8613    8611    8625    8626
    7655      78    8615    8613    8626    8627
    7656      78    8617    8615    8627    8628
    7657      78    8617    8628    8629    8618
    7658      78    8630    8616    8619    8631
    7659      78    8630    8632    8614    8616
$ ... 146 like lines cut
*PART
FLANGIA_DX
        78        78       255                             0         0          
*SECTION_SHELL_TITLE
FLANGIA_DX
        78         2   0.83333        2.        0.         0         0
       15.       15.       15.       15.        0.                  0.          
*DEFINE_COORDINATE_SYSTEM_TITLE
((((S
         1-693.56522 4955.33534725.96427-694.150044956.076694725.63513
-693.666814954.86579 4725.0872
*DEFINE_COORDINATE_SYSTEM_TITLE
^((S
         2-902.456384829.442714916.09515-902.354794829.912214916.97222
-901.65161 4829.92224915.74526
*MAT_PIECEWISE_LINEAR_PLASTICITY_TITLE

       255   7.83E-9   207000.      0.28      610.        0.        0.        0.
        0.        0.         0         0        0.
        0.     0.009     0.024     0.052     0.077     0.117     0.147     0.297
      610.      645.      670.      720.      780.      840.      870.      795.
*SET_PART_LIST
       231        0.        0.        0.        0.          
        78
*SET_NODE_LIST
       245        0.        0.        0.        0.          
      8601      8605      8614      8619      8620      8622      8627      8629
      8641      8652      8656      8662      8665      8666      8667      8669
*SET_NODE_LIST
       246        0.        0.        0.        0.          
      8705      8709      8711      8715      8750      8753      8757      8759
      8763      8765
*SET_PART_LIST
       248        0.        0.        0.        0.          
        78
*SET_PART_LIST
       249        0.        0.        0.        0.          
        78
$ANSA_COLOR;78;SECTION_SHELL;.627451002597809;.631372570991516;0.87058824300766;
$1.;
$ANSA_COLOR;255;MAT24 MAT_PIECEWISE_LINEAR_PLASTICITY;0.5686274766922;.407843142
$747879;0.5686274766922;1.;
$ANSA_USER_ATTRIBUTES;SECTION_SHELL;User/cad_material;TEXT;RW;YES;;;
$ANSA_USER_ATTRIBUTES;SECTION_SHELL;User/cad_thickness;TEXT;RW;YES;;;
$ANSA_PART;GROUP;ID;118;NAME;Main.dyn;BELONGS_HERE;YES;PID_OFFSET;0;COLOR;201;23
$6;118;0;IS_COLOR_ACTIVE;0;PART_TYPE;Undefined;ATTRIBUTES;2;DM/File Type;ANSA;DM
$/Status;WIP;CONTAINS;ANSAPART;53;
$ANSA_PART;PART;ID;53;MID;78;NAME;FLANGIA_DX;BELONGS_HERE;YES;STUDY_VERSION;0;PI
$D_OFFSET;0;COLOR;189;2;64;0;IS_COLOR_ACTIVE;1;PART_TYPE;Undefined;ATTRIBUTES;2;
$DM/File Type;ANSA;DM/Status;WIP;CONTAINS;SECTION_SHELL;78;
*END
