$
$ANSA_VERSION;24.1.1;
$
$
$ file created by  A N S A  Fri May 31 17:30:27 2024
$
$ output from :
$
$ /home/mz/repos/buda/dirty/susp/after_cs/improve/3lyrs/rear-tire.key
$
$ Settings :
$
$ Output format : R13
$
$ Output : All
$
$
$
$
*KEYWORD
*NODE
   12303-649.812983336835706.032215297184922.40637999219       0       0
   12304-665.255286387225709.906447526464958.57211898828       0       0
   12305-697.554979100345682.805793807634954.91799547507       0       0
   12306-691.54802176034 5671.01560741994917.68629349332       0       0
   12307-680.696784660515713.781159245644994.73750809401       0       0
   12308-703.561131663255694.596459685264992.14934756646       0       0
   12309-731.866977812515659.659243248924963.74633861573       0       0
   12310-735.883433832375641.103655696384929.08528474226       0       0
   12311-727.849928140915678.211094784164998.39792202185       0       0
   12312-764.832523257655642.725612334454984.17725052776       0       0
   12313-778.479027265515619.225803005294955.49022107442       0       0
   12314 -751.18521447275666.225901153525012.86393009073       0       0
   12315-793.224883763325633.669750463145014.22747626208       0       0
   12316-815.165281383235607.522732711064994.31449446747       0       0
   12317-771.283087714585659.813511687845034.13063769896       0       0
   12318-814.263218316325633.37553888625 5050.9468610443       0       0
   12319-842.351883308295607.13976837779  5041.758550819       0       0
   12320-786.175569226795659.606614397595060.12640058293       0       0
   12321-555.686787434825605.352773135754922.23155413684       0       0
   12322-587.086381815735638.88465925738 4922.3873932859       0       0
$ ... 1040 like lines cut
*ELEMENT_SHELL
   11003     130   12825   12925   12926   12818
   11004     130   12925   12927   12928   12926
   11005     130   12927   12929   12930   12928
   11006     130   12929   12931   12932   12930
   11007     130   12931   12933   12934   12932
   11008     131   12933   13126   13127   12934
   11009     131   13126   13128   13129   13127
   11010     131   13128   13130   13131   13129
   11011     131   13130   13132   13133   13131
   11012     131   13132   13134   13135   13133
   11013     131   13134   12935   12938   13135
   11014     130   12935   12936   12937   12938
   11015     130   12936   12939   12940   12937
   11016     130   12939   12941   12942   12940
   11017     130   12941   12943   12944   12942
   11018     130   12943   12820   12813   12944
   11019     130   12818   12926   12945   12811
   11020     130   12926   12928   12946   12945
   11021     130   12928   12930   12947   12946
   11022     130   12930   12932   12948   12947
$ ... 1100 like lines cut
*PART
CERCHI
       128       128        50                             0         0          
*SECTION_SHELL_TITLE
CERCHI
       128        16   0.83333        2.        0.         0         0
        4.        4.        4.        4.        0.                  0.          
*PART
CERCHIONE_BASE_DX_1
       129       129        50                             0         0          
*SECTION_SHELL_TITLE
CERCHIONE_BASE_DX_1
       129        16   0.83333        2.        0.         0         0
        4.        4.        4.        4.        0.                  0.          
*PART
LATERALE_GOMMA_DX_1
       130       130         4                             0         0          
*SECTION_SHELL_TITLE
LATERALE_GOMMA_DX_1
       130        16   0.83333        3.        0.         0         0
       10.       10.       10.       10.        0.                  0.          
*PART
BATTISTRADA_DX_1
       131       131         4                             0         0          
*SECTION_SHELL_TITLE
BATTISTRADA_DX_1
       131        16   0.83333        3.        0.         0         0
       20.       20.       20.       20.        0.                  0.          
*PART
CERCHIONE_BASE_DX_2
       132       132        50                             0         0          
*SECTION_SHELL_TITLE
CERCHIONE_BASE_DX_2
       132        16   0.83333        2.        0.         0         0
        4.        4.        4.        4.        0.                  0.          
*PART
LATERALE_GOMMA_DX_2
       133       133         4                             0         0          
*SECTION_SHELL_TITLE
LATERALE_GOMMA_DX_2
       133        16   0.83333        3.        0.         0         0
       10.       10.       10.       10.        0.                  0.          
*PART
BATTISTRADA_DX_2
       134       134         4                             0         0          
*SECTION_SHELL_TITLE
BATTISTRADA_DX_2
       134        16   0.83333        3.        0.         0         0
       20.       20.       20.       20.        0.                  0.          
*DEFINE_COORDINATE_SYSTEM_TITLE
((((S
         1-718.10534 5723.17745082.37284-718.660665722.515715081.86907
-717.514075723.289245081.57417
*MAT_ELASTIC_TITLE

         4   1.19E-9     4000.      0.45        0.        0.          
*MAT_PIECEWISE_LINEAR_PLASTICITY_TITLE

        50   7.83E-9   207000.      0.28      450.        0.        0.        0.
        0.        0.         0         0        0.
        0.    0.0092    0.0242    0.0522    0.0772     0.117     0.147     0.297
      450.      485.      510.      560.      620.      680.      710.      635.
*SET_NODE_LIST
        13        0.        0.        0.        0.          
     12403     12378     12345     12310
*SET_PART_LIST
       200        0.        0.        0.        0.          
       132       133       134
*SET_PART_LIST
       210        0.        0.        0.        0.          
       129       130       131
*SET_PART_LIST
       231        0.        0.        0.        0.          
       128       129       130       131       132       133       134
*SET_PART_LIST
       234        0.        0.        0.        0.          
       128       129       130       131       132       133       134
*SET_PART_LIST
       248        0.        0.        0.        0.          
       128       129       130       131       132       133       134
$ANSA_COLOR;128;SECTION_SHELL;.560784339904785;.984313726425171;.819607853889465
$;1.;
$ANSA_COLOR;129;SECTION_SHELL;.572549045085907;.850980401039124;.737254917621613
$;1.;
$ANSA_COLOR;130;SECTION_SHELL;.580392181873322;.717647075653076;.658823549747467
$;1.;
$ANSA_COLOR;131;SECTION_SHELL;.588235318660736;.584313750267029;.576470613479614
$;1.;
$ANSA_COLOR;132;SECTION_SHELL;.596078455448151;.450980395078659;.494117647409439
$;1.;
$ANSA_COLOR;133;SECTION_SHELL;.603921592235565;.317647069692612;.415686279535294
$;1.;
$ANSA_COLOR;134;SECTION_SHELL;.615686297416687;.184313729405403;.333333343267441
$;1.;
$ANSA_COLOR;4;MAT1 MAT_ELASTIC;.596078455448151;.007843137718737;.32549020648002
$6;1.;
$ANSA_COLOR;50;MAT24 MAT_PIECEWISE_LINEAR_PLASTICITY;.996078431606293;.890196084
$976196;.600000023841858;1.;
$ANSA_USER_ATTRIBUTES;SECTION_SHELL;User/cad_material;TEXT;RW;YES;;;
$ANSA_USER_ATTRIBUTES;SECTION_SHELL;User/cad_thickness;TEXT;RW;YES;;;
$ANSA_PART;GROUP;ID;118;NAME;Main.dyn;BELONGS_HERE;YES;PID_OFFSET;0;COLOR;201;23
$6;118;0;IS_COLOR_ACTIVE;0;PART_TYPE;Undefined;ATTRIBUTES;2;DM/File Type;ANSA;DM
$/Status;WIP;CONTAINS;ANSAPART;70-73,76-78;
$ANSA_PART;PART;ID;70;MID;130;NAME;LATERALE_GOMMA_DX_1;BELONGS_HERE;YES;STUDY_VE
$RSION;0;PID_OFFSET;0;COLOR;227;191;223;0;IS_COLOR_ACTIVE;1;PART_TYPE;Undefined;
$ATTRIBUTES;2;DM/File Type;ANSA;DM/Status;WIP;CONTAINS;SECTION_SHELL;130;
$ANSA_PART;PART;ID;71;MID;131;NAME;BATTISTRADA_DX_1;BELONGS_HERE;YES;STUDY_VERSI
$ON;0;PID_OFFSET;0;COLOR;229;157;202;0;IS_COLOR_ACTIVE;1;PART_TYPE;Undefined;ATT
$RIBUTES;2;DM/File Type;ANSA;DM/Status;WIP;CONTAINS;SECTION_SHELL;131;
$ANSA_PART;PART;ID;72;MID;129;NAME;CERCHIONE_BASE_DX_1;BELONGS_HERE;YES;STUDY_VE
$RSION;0;PID_OFFSET;0;COLOR;232;123;182;0;IS_COLOR_ACTIVE;1;PART_TYPE;Undefined;
$ATTRIBUTES;2;DM/File Type;ANSA;DM/Status;WIP;CONTAINS;SECTION_SHELL;129;
$ANSA_PART;PART;ID;73;MID;128;NAME;CERCHI;BELONGS_HERE;YES;STUDY_VERSION;0;PID_O
$FFSET;0;COLOR;234;89;161;0;IS_COLOR_ACTIVE;1;PART_TYPE;Undefined;ATTRIBUTES;2;D
$M/File Type;ANSA;DM/Status;WIP;CONTAINS;SECTION_SHELL;128;
$ANSA_PART;PART;ID;76;MID;133;NAME;LATERALE_GOMMA_DX_2;BELONGS_HERE;YES;STUDY_VE
$RSION;0;PID_OFFSET;0;COLOR;241;242;99;0;IS_COLOR_ACTIVE;1;PART_TYPE;Undefined;A
$TTRIBUTES;2;DM/File Type;ANSA;DM/Status;WIP;CONTAINS;SECTION_SHELL;133;
$ANSA_PART;PART;ID;77;MID;134;NAME;BATTISTRADA_DX_2;BELONGS_HERE;YES;STUDY_VERSI
$ON;0;PID_OFFSET;0;COLOR;243;208;78;0;IS_COLOR_ACTIVE;1;PART_TYPE;Undefined;ATTR
$IBUTES;2;DM/File Type;ANSA;DM/Status;WIP;CONTAINS;SECTION_SHELL;134;
$ANSA_PART;PART;ID;78;MID;132;NAME;CERCHIONE_BASE_DX_2;BELONGS_HERE;YES;STUDY_VE
$RSION;0;PID_OFFSET;0;COLOR;245;174;58;0;IS_COLOR_ACTIVE;1;PART_TYPE;Undefined;A
$TTRIBUTES;2;DM/File Type;ANSA;DM/Status;WIP;CONTAINS;SECTION_SHELL;132;
*END
